LTspice 24.0.9 for Windows
Circuit: *** SPICE deck for cell 1-bit_Comparator{sch} from library 1-bit_Comparator
Start Time: Sat Jun 15 14:54:37 2024
Ignoring BSIM parameter XL
Ignoring BSIM parameter XW
Ignoring BSIM parameter XL
Ignoring BSIM parameter XW
solver = Normal
Maximum thread count: 8
tnom = 27
temp = 27
method = modified trap
Warning: Pd = 0 is less than W.
Warning: Ps = 0 is less than W.
Warning: Pd = 0 is less than W.
Warning: Ps = 0 is less than W.
Warning: Pd = 0 is less than W.
Warning: Ps = 0 is less than W.
Warning: Pd = 0 is less than W.
Warning: Ps = 0 is less than W.
Direct Newton iteration for .op point succeeded.

tf=1.05479e-07 FROM 9.45211e-08 TO 2e-07
tr=1.43086e-07 FROM 5.69142e-08 TO 2e-07

Measurement "tf1" FAIL'ed
tr1=2.35249e-08 FROM 1.76475e-07 TO 2e-07
tf2=1.41243e-07 FROM 5.87567e-08 TO 2e-07
tr2=1.04203e-07 FROM 9.5797e-08 TO 2e-07

Total elapsed time: 0.329 seconds.

