LTspice 24.0.9 for Windows
Circuit: *** SPICE deck for cell 2-bit_Comparator{sch} from library 2-bit_Comparator
Start Time: Sat Jun 15 15:41:01 2024
Ignoring BSIM parameter XL
Ignoring BSIM parameter XW
Ignoring BSIM parameter XL
Ignoring BSIM parameter XW
solver = Normal
Maximum thread count: 8
tnom = 27
temp = 27
method = modified trap
vx1: Removing PWL point (1.4e-07,0)
vx3: Removing PWL point (5e-08,0)
Warning: Pd = 0 is less than W.
Warning: Ps = 0 is less than W.
Warning: Pd = 0 is less than W.
Warning: Ps = 0 is less than W.
Warning: Pd = 0 is less than W.
Warning: Ps = 0 is less than W.
Warning: Pd = 0 is less than W.
Warning: Ps = 0 is less than W.
Direct Newton iteration for .op point succeeded.

tf=9.00264e-08 FROM 1.09974e-07 TO 2e-07
tr=1.25198e-07 FROM 7.48024e-08 TO 2e-07
tf1=1.73164e-07 FROM 2.68358e-08 TO 2e-07
tr1=7.58047e-08 FROM 1.24195e-07 TO 2e-07
tf2=1.64396e-07 FROM 3.56036e-08 TO 2e-07
tr2=1.72706e-07 FROM 2.72938e-08 TO 2e-07

Total elapsed time: 0.499 seconds.

