LTspice 24.0.9 for Windows
Circuit: *** SPICE deck for cell 8_bit_comprator{sch} from library 8_bit_comparator
Start Time: Sat Jun 15 16:11:17 2024
Ignoring BSIM parameter XL
Ignoring BSIM parameter XW
Ignoring BSIM parameter XL
Ignoring BSIM parameter XW
solver = Normal
Maximum thread count: 8
tnom = 27
temp = 27
method = modified trap
Warning: Pd = 0 is less than W.
Warning: Ps = 0 is less than W.
Warning: Pd = 0 is less than W.
Warning: Ps = 0 is less than W.
Warning: Pd = 0 is less than W.
Warning: Ps = 0 is less than W.
Warning: Pd = 0 is less than W.
Warning: Ps = 0 is less than W.
Early termination of direct N-R iteration.
Direct Newton iteration failed to find .op point.  (Use ".option noopiter" to skip.)
Starting Gmin stepping
Gmin = 10
Gmin = 1.07374
Gmin = 0.115292
Gmin = 0.0123794
Gmin = 0.00132923
Gmin = 0.000142725
Gmin = 1.5325e-05
Gmin = 1.6455e-06
Gmin = 1.76685e-07
Gmin = 1.89714e-08
Gmin = 2.03704e-09
Gmin = 2.18725e-10
Gmin = 2.34854e-11
Gmin = 2.52173e-12
Gmin = 2.70769e-13
Gmin = 0
Gmin stepping succeeded in finding the operating point.


tf_b0prime=4.92531e-09 FROM 5.67074e-09 TO 1.05961e-08
tr_b0prime=9.8489e-09 FROM 7.88165e-08 TO 8.86654e-08
tf_b1prime=4.92376e-09 FROM 5.68498e-09 TO 1.06087e-08
tr_b1prime=9.85192e-09 FROM 7.88279e-08 TO 8.86798e-08
tf_b2prime=4.92373e-09 FROM 5.685e-09 TO 1.06087e-08
tr_b2prime=9.85193e-09 FROM 7.88279e-08 TO 8.86798e-08
tf_b3prime=4.92374e-09 FROM 5.68499e-09 TO 1.06087e-08
tr_b3prime=9.85193e-09 FROM 7.88279e-08 TO 8.86798e-08
tf_b4prime=4.92373e-09 FROM 5.685e-09 TO 1.06087e-08
tr_b4prime=9.85193e-09 FROM 7.88279e-08 TO 8.86798e-08
tf_b5prime=4.92374e-09 FROM 5.68499e-09 TO 1.06087e-08
tr_b5prime=9.85193e-09 FROM 7.88279e-08 TO 8.86798e-08
tf_b6prime=4.92373e-09 FROM 5.685e-09 TO 1.06087e-08
tr_b6prime=9.85193e-09 FROM 7.88279e-08 TO 8.86798e-08
tf_b7prime=4.9192e-09 FROM 5.72705e-09 TO 1.06463e-08
tr_b7prime=9.81581e-09 FROM 7.88701e-08 TO 8.86859e-08
tf_comp=9.63102e-09 FROM 9.86403e-09 TO 1.9495e-08
tr_comp=3.14092e-09 FROM 8.56398e-08 TO 8.87807e-08

Total elapsed time: 1.625 seconds.

