Circuit: *** SPICE deck for cell A(Bprime){sch} from library 1-bit_Comparator

Ignoring BSIM parameter XL
Ignoring BSIM parameter XW
Ignoring BSIM parameter XL
Ignoring BSIM parameter XW
Vx1: Removing PWL point (3e-008,5)
Warning: Pd = 0 is less than W.
Warning: Ps = 0 is less than W.
Warning: Pd = 0 is less than W.
Warning: Ps = 0 is less than W.
Warning: Pd = 0 is less than W.
Warning: Ps = 0 is less than W.
Warning: Pd = 0 is less than W.
Warning: Ps = 0 is less than W.
Direct Newton iteration for .op point succeeded.

tf=1.85972e-007 FROM 1.40283e-008 TO 2e-007
tr=1.47329e-007 FROM 5.26706e-008 TO 2e-007


Date: Thu May 23 21:34:56 2024
Total elapsed time: 0.371 seconds.

tnom = 27
temp = 27
method = modified trap
totiter = 2534
traniter = 2506
tranpoints = 1088
accept = 1072
rejected = 16
matrix size = 14
fillins = 0
solver = Normal
Matrix Compiler1: 868 bytes object code size  0.6/0.4/[0.2]
Matrix Compiler2: 1.31 KB object code size  0.3/0.6/[0.3]

