Circuit: *** SPICE deck for cell buffer{lay} from library Inverter

Ignoring BSIM parameter XL
Ignoring BSIM parameter XW
Ignoring BSIM parameter XL
Ignoring BSIM parameter XW
Direct Newton iteration for .op point succeeded.

tf=4.38121e-008 FROM 5.61879e-008 TO 1e-007

Measurement "tr" FAIL'ed


Date: Fri Apr 26 22:58:49 2024
Total elapsed time: 0.182 seconds.

tnom = 27
temp = 27
method = modified trap
totiter = 2135
traniter = 2124
tranpoints = 1054
accept = 1054
rejected = 0
matrix size = 6
fillins = 0
solver = Normal
Matrix Compiler1: 200 bytes object code size  0.2/0.1/[0.1]
Matrix Compiler2: 442 bytes object code size  0.1/0.2/[0.1]

