Circuit: *** SPICE deck for cell buffer_sch{sch} from library Inverter

