Circuit: *** SPICE deck for cell Inv_sch{sch} from library Inverter

Ignoring BSIM parameter XL
Ignoring BSIM parameter XW
Ignoring BSIM parameter XL
Ignoring BSIM parameter XW
Warning: Pd = 0 is less than W.
Warning: Ps = 0 is less than W.
Warning: Pd = 0 is less than W.
Warning: Ps = 0 is less than W.
Direct Newton iteration for .op point succeeded.

tf=8.62233e-008 FROM 1.37767e-008 TO 1e-007
tr=4.46319e-008 FROM 5.53681e-008 TO 1e-007


Date: Fri Apr 05 16:44:33 2024
Total elapsed time: 0.105 seconds.

tnom = 27
temp = 27
method = modified trap
totiter = 2114
traniter = 2108
tranpoints = 1054
accept = 1054
rejected = 0
matrix size = 5
fillins = 0
solver = Normal
Matrix Compiler1: 204 bytes object code size  0.1/0.1/[0.1]
Matrix Compiler2: 311 bytes object code size  0.1/0.1/[0.1]

