Circuit: *** SPICE deck for cell Inv_sim{lay} from library Inverter

Ignoring BSIM parameter XL
Ignoring BSIM parameter XW
Ignoring BSIM parameter XL
Ignoring BSIM parameter XW
Direct Newton iteration for .op point succeeded.

tf=8.62086e-008 FROM 1.37914e-008 TO 1e-007
tr=4.46214e-008 FROM 5.53786e-008 TO 1e-007


Date: Fri Apr 26 22:58:14 2024
Total elapsed time: 0.160 seconds.

tnom = 27
temp = 27
method = modified trap
totiter = 2116
traniter = 2108
tranpoints = 1054
accept = 1054
rejected = 0
matrix size = 5
fillins = 0
solver = Normal
Matrix Compiler1: 204 bytes object code size  0.1/0.1/[0.1]
Matrix Compiler2: 311 bytes object code size  0.1/0.1/[0.1]

