LTspice 24.0.9 for Windows
Circuit: *** SPICE deck for cell Inverter{lay} from library Inverter
Start Time: Fri Apr  5 17:36:37 2024
Ignoring BSIM parameter XL
Ignoring BSIM parameter XW
Ignoring BSIM parameter XL
Ignoring BSIM parameter XW
solver = Normal
Maximum thread count: 8
tnom = 27
temp = 27
method = modified trap
Direct Newton iteration for .op point succeeded.

tf=8.62222e-08 FROM 1.37778e-08 TO 1e-07
tr=4.40243e-08 FROM 5.59757e-08 TO 1e-07

Total elapsed time: 0.634 seconds.

