LTspice 24.0.9 for Windows
Circuit: *** SPICE deck for cell Mux2to1{sch} from library Mux2to1
Start Time: Sat Jun 15 16:19:46 2024
Ignoring BSIM parameter XL
Ignoring BSIM parameter XW
Ignoring BSIM parameter XL
Ignoring BSIM parameter XW
Error on line 34 : cload sprime 0 375ff,cload2 f 0 375ff
	 Unknown parameter "cload2"
solver = Normal
Maximum thread count: 8
tnom = 27
temp = 27
method = modified trap
Warning: Pd = 0 is less than W.
Warning: Ps = 0 is less than W.
Warning: Pd = 0 is less than W.
Warning: Ps = 0 is less than W.
Warning: Pd = 0 is less than W.
Warning: Ps = 0 is less than W.
Warning: Pd = 0 is less than W.
Warning: Ps = 0 is less than W.
Direct Newton iteration for .op point succeeded.

tf=1.85896e-07 FROM 1.41035e-08 TO 2e-07
tr=4.43629e-08 FROM 1.55637e-07 TO 2e-07
tf2=4.70824e-08 FROM 1.52918e-07 TO 2e-07
tr2=1.83024e-07 FROM 1.69756e-08 TO 2e-07

Total elapsed time: 0.472 seconds.

