Circuit: *** SPICE deck for cell NAND{lay} from library 3_Input_NAND

Ignoring BSIM parameter XL
Ignoring BSIM parameter XW
Ignoring BSIM parameter XL
Ignoring BSIM parameter XW
Direct Newton iteration for .op point succeeded.

tf=1.83201e-007 FROM 1.67995e-008 TO 2e-007
tr=1.45197e-007 FROM 5.48033e-008 TO 2e-007


Date: Sat Apr 27 02:05:16 2024
Total elapsed time: 0.085 seconds.

tnom = 27
temp = 27
method = modified trap
totiter = 2272
traniter = 2265
tranpoints = 1079
accept = 1079
rejected = 0
matrix size = 11
fillins = 0
solver = Normal
Matrix Compiler1: 504 bytes object code size  0.2/0.1/[0.1]
Matrix Compiler2: 925 bytes object code size  0.1/0.2/[0.1]

