LTspice 24.0.9 for Windows
Circuit: *** SPICE deck for cell NOR2{sch} from library NOR2
Start Time: Thu May 23 22:15:25 2024
Ignoring BSIM parameter XL
Ignoring BSIM parameter XW
Ignoring BSIM parameter XL
Ignoring BSIM parameter XW
solver = Normal
Maximum thread count: 8
tnom = 27
temp = 27
method = modified trap
vin1: Removing PWL point (2e-08,5)
Warning: Pd = 0 is less than W.
Warning: Ps = 0 is less than W.
Warning: Pd = 0 is less than W.
Warning: Ps = 0 is less than W.
Direct Newton iteration for .op point succeeded.


Measurement "tf" FAIL'ed
tr=4.33014e-08 FROM 5.66986e-08 TO 1e-07

Total elapsed time: 0.609 seconds.

